<?xml version="1.0" encoding="UTF-8"?>

<!-- generated on 2025-11-03 13:59:25 by Eclipse SUMO netedit Version 1.24.0
<neteditConfiguration xmlns:xsi="http://www.w3.org/2001/XMLSchema-instance" xsi:noNamespaceSchemaLocation="http://sumo.dlr.de/xsd/neteditConfiguration.xsd">

    <input>
        <sumo-net-file value="C:\Users\jlijewski\sumoProject\EEL5632_FinalProject\5Lane_highway.net.xml"/>
    </input>

    <output>
        <output-file value="C:\Users\jlijewski\sumoProject\EEL5632_FinalProject\5Lane_highway.net.xml"/>
    </output>

    <processing>
        <offset.disable-normalization value="true"/>
    </processing>

    <junctions>
        <no-turnarounds value="true"/>
    </junctions>

    <netedit>
        <new-network value="false"/>
    </netedit>

</neteditConfiguration>
-->

<net version="1.20" junctionCornerDetail="5" limitTurnSpeed="5.50" xmlns:xsi="http://www.w3.org/2001/XMLSchema-instance" xsi:noNamespaceSchemaLocation="http://sumo.dlr.de/xsd/net_file.xsd">

    <location netOffset="0.00,0.00" convBoundary="-145.56,-32.85,178.62,-32.01" origBoundary="10000000000.00,10000000000.00,-10000000000.00,-10000000000.00" projParameter="!"/>

    <edge id="E1" from="J5" to="J6" priority="-1" spreadType="center">
        <lane id="E1_0" index="0" speed="13.89" length="324.19" shape="-145.55,-39.25 178.64,-38.41"/>
        <lane id="E1_1" index="1" speed="13.89" length="324.19" shape="-145.56,-36.05 178.63,-35.21"/>
        <lane id="E1_2" index="2" speed="13.89" length="324.19" shape="-145.56,-32.85 178.62,-32.01"/>
        <lane id="E1_3" index="3" speed="13.89" length="324.19" shape="-145.57,-29.65 178.62,-28.81"/>
        <lane id="E1_4" index="4" speed="13.89" length="324.19" shape="-145.58,-26.45 178.61,-25.61"/>
    </edge>

    <junction id="J5" type="dead_end" x="-145.56" y="-32.85" incLanes="" intLanes="" shape="-145.59,-24.85 -145.54,-40.85"/>
    <junction id="J6" type="dead_end" x="178.62" y="-32.01" incLanes="E1_0 E1_1 E1_2 E1_3 E1_4" intLanes="" shape="178.65,-40.01 178.60,-24.01"/>

</net>
